* NGSPICE file created from mux64.ext - technology: sky130A

* Black-box entry subcircuit for sky130_fd_sc_hd__tapvpwrvgnd_1 abstract view
.subckt sky130_fd_sc_hd__tapvpwrvgnd_1 VGND VPWR
.ends

* Black-box entry subcircuit for sky130_ef_sc_hd__decap_12 abstract view
.subckt sky130_ef_sc_hd__decap_12 VPWR VGND VPB VNB
.ends

* Black-box entry subcircuit for sky130_fd_sc_hd__fill_2 abstract view
.subckt sky130_fd_sc_hd__fill_2 VGND VNB VPB VPWR
.ends

* Black-box entry subcircuit for sky130_fd_sc_hd__fill_1 abstract view
.subckt sky130_fd_sc_hd__fill_1 VGND VNB VPB VPWR
.ends

* Black-box entry subcircuit for sky130_fd_sc_hd__decap_6 abstract view
.subckt sky130_fd_sc_hd__decap_6 VGND VNB VPB VPWR
.ends

* Black-box entry subcircuit for sky130_fd_sc_hd__decap_4 abstract view
.subckt sky130_fd_sc_hd__decap_4 VGND VNB VPB VPWR
.ends

* Black-box entry subcircuit for sky130_fd_sc_hd__buf_4 abstract view
.subckt sky130_fd_sc_hd__buf_4 A VGND VNB VPB VPWR X
.ends

* Black-box entry subcircuit for sky130_fd_sc_hd__mux4_1 abstract view
.subckt sky130_fd_sc_hd__mux4_1 A0 A1 A2 A3 S0 S1 VGND VNB VPB VPWR X
.ends

* Black-box entry subcircuit for sky130_fd_sc_hd__decap_8 abstract view
.subckt sky130_fd_sc_hd__decap_8 VGND VNB VPB VPWR
.ends

* Black-box entry subcircuit for sky130_fd_sc_hd__inv_2 abstract view
.subckt sky130_fd_sc_hd__inv_2 A VGND VNB VPB VPWR Y
.ends

* Black-box entry subcircuit for sky130_fd_sc_hd__or2_1 abstract view
.subckt sky130_fd_sc_hd__or2_1 A B VGND VNB VPB VPWR X
.ends

* Black-box entry subcircuit for sky130_fd_sc_hd__decap_3 abstract view
.subckt sky130_fd_sc_hd__decap_3 VGND VNB VPB VPWR
.ends

* Black-box entry subcircuit for sky130_fd_sc_hd__o221a_1 abstract view
.subckt sky130_fd_sc_hd__o221a_1 A1 A2 B1 B2 C1 VGND VNB VPB VPWR X
.ends

* Black-box entry subcircuit for sky130_fd_sc_hd__a21o_1 abstract view
.subckt sky130_fd_sc_hd__a21o_1 A1 A2 B1 VGND VNB VPB VPWR X
.ends

* Black-box entry subcircuit for sky130_fd_sc_hd__mux2_1 abstract view
.subckt sky130_fd_sc_hd__mux2_1 A0 A1 S VGND VNB VPB VPWR X
.ends

* Black-box entry subcircuit for sky130_fd_sc_hd__and2_1 abstract view
.subckt sky130_fd_sc_hd__and2_1 A B VGND VNB VPB VPWR X
.ends

* Black-box entry subcircuit for sky130_fd_sc_hd__a21oi_1 abstract view
.subckt sky130_fd_sc_hd__a21oi_1 A1 A2 B1 VGND VNB VPB VPWR Y
.ends

* Black-box entry subcircuit for sky130_fd_sc_hd__nand2_1 abstract view
.subckt sky130_fd_sc_hd__nand2_1 A B VGND VNB VPB VPWR Y
.ends

* Black-box entry subcircuit for sky130_fd_sc_hd__dlymetal6s2s_1 abstract view
.subckt sky130_fd_sc_hd__dlymetal6s2s_1 A VGND VNB VPB VPWR X
.ends

* Black-box entry subcircuit for sky130_fd_sc_hd__clkbuf_2 abstract view
.subckt sky130_fd_sc_hd__clkbuf_2 A VGND VNB VPB VPWR X
.ends

* Black-box entry subcircuit for sky130_fd_sc_hd__buf_1 abstract view
.subckt sky130_fd_sc_hd__buf_1 A VGND VNB VPB VPWR X
.ends

* Black-box entry subcircuit for sky130_fd_sc_hd__clkbuf_1 abstract view
.subckt sky130_fd_sc_hd__clkbuf_1 A VGND VNB VPB VPWR X
.ends

* Black-box entry subcircuit for sky130_fd_sc_hd__o21ai_1 abstract view
.subckt sky130_fd_sc_hd__o21ai_1 A1 A2 B1 VGND VNB VPB VPWR Y
.ends

* Black-box entry subcircuit for sky130_fd_sc_hd__o21a_1 abstract view
.subckt sky130_fd_sc_hd__o21a_1 A1 A2 B1 VGND VNB VPB VPWR X
.ends

* Black-box entry subcircuit for sky130_fd_sc_hd__a31o_1 abstract view
.subckt sky130_fd_sc_hd__a31o_1 A1 A2 A3 B1 VGND VNB VPB VPWR X
.ends

* Black-box entry subcircuit for sky130_fd_sc_hd__buf_2 abstract view
.subckt sky130_fd_sc_hd__buf_2 A VGND VNB VPB VPWR X
.ends

* Black-box entry subcircuit for sky130_fd_sc_hd__a32oi_4 abstract view
.subckt sky130_fd_sc_hd__a32oi_4 A1 A2 A3 B1 B2 VGND VNB VPB VPWR Y
.ends

* Black-box entry subcircuit for sky130_fd_sc_hd__clkbuf_4 abstract view
.subckt sky130_fd_sc_hd__clkbuf_4 A VGND VNB VPB VPWR X
.ends

* Black-box entry subcircuit for sky130_fd_sc_hd__o21ai_2 abstract view
.subckt sky130_fd_sc_hd__o21ai_2 A1 A2 B1 VGND VNB VPB VPWR Y
.ends

* Black-box entry subcircuit for sky130_fd_sc_hd__clkbuf_8 abstract view
.subckt sky130_fd_sc_hd__clkbuf_8 A VGND VNB VPB VPWR X
.ends

* Black-box entry subcircuit for sky130_fd_sc_hd__a32o_1 abstract view
.subckt sky130_fd_sc_hd__a32o_1 A1 A2 A3 B1 B2 VGND VNB VPB VPWR X
.ends

* Black-box entry subcircuit for sky130_fd_sc_hd__a221o_1 abstract view
.subckt sky130_fd_sc_hd__a221o_1 A1 A2 B1 B2 C1 VGND VNB VPB VPWR X
.ends

.subckt mux64 VGND VPWR in[0] in[10] in[11] in[12] in[13] in[14] in[15] in[16] in[17]
+ in[18] in[19] in[1] in[20] in[21] in[22] in[23] in[24] in[25] in[26] in[27] in[28]
+ in[29] in[2] in[30] in[31] in[32] in[33] in[34] in[35] in[36] in[37] in[38] in[39]
+ in[3] in[40] in[41] in[42] in[43] in[44] in[45] in[46] in[47] in[48] in[49] in[4]
+ in[50] in[51] in[52] in[53] in[54] in[55] in[56] in[57] in[58] in[59] in[5] in[60]
+ in[61] in[62] in[63] in[6] in[7] in[8] in[9] out sel[0] sel[1] sel[2] sel[3] sel[4]
+ sel[5]
XTAP_177 VGND VPWR sky130_fd_sc_hd__tapvpwrvgnd_1
XTAP_188 VGND VPWR sky130_fd_sc_hd__tapvpwrvgnd_1
XTAP_199 VGND VPWR sky130_fd_sc_hd__tapvpwrvgnd_1
XFILLER_0_27_93 VPWR VGND VPWR VGND sky130_ef_sc_hd__decap_12
XFILLER_0_64_317 VGND VGND VPWR VPWR sky130_fd_sc_hd__fill_2
XFILLER_0_57_391 VGND VGND VPWR VPWR sky130_fd_sc_hd__fill_1
XFILLER_0_43_81 VPWR VGND VPWR VGND sky130_ef_sc_hd__decap_12
XFILLER_0_32_258 VPWR VGND VPWR VGND sky130_ef_sc_hd__decap_12
XFILLER_0_7_81 VPWR VGND VPWR VGND sky130_ef_sc_hd__decap_12
XFILLER_0_55_317 VPWR VGND VPWR VGND sky130_ef_sc_hd__decap_12
XFILLER_0_63_361 VPWR VGND VPWR VGND sky130_ef_sc_hd__decap_12
XFILLER_0_23_225 VPWR VGND VPWR VGND sky130_ef_sc_hd__decap_12
XFILLER_0_48_26 VGND VGND VPWR VPWR sky130_fd_sc_hd__fill_2
XFILLER_0_64_14 VPWR VGND VPWR VGND sky130_ef_sc_hd__decap_12
XFILLER_0_3_39 VPWR VGND VPWR VGND sky130_ef_sc_hd__decap_12
XFILLER_0_58_177 VPWR VGND VPWR VGND sky130_ef_sc_hd__decap_12
XFILLER_0_58_133 VGND VGND VPWR VPWR sky130_fd_sc_hd__decap_6
XFILLER_0_39_391 VGND VGND VPWR VPWR sky130_fd_sc_hd__fill_1
XFILLER_0_13_51 VGND VGND VPWR VPWR sky130_fd_sc_hd__decap_4
XFILLER_0_49_111 VGND VGND VPWR VPWR sky130_fd_sc_hd__fill_1
XFILLER_0_64_169 VGND VGND VPWR VPWR sky130_fd_sc_hd__decap_6
XFILLER_0_52_309 VPWR VGND VPWR VGND sky130_ef_sc_hd__decap_12
XFILLER_0_45_361 VPWR VGND VPWR VGND sky130_ef_sc_hd__decap_12
XFILLER_0_37_317 VPWR VGND VPWR VGND sky130_ef_sc_hd__decap_12
XFILLER_0_18_29 VPWR VGND VPWR VGND sky130_ef_sc_hd__decap_12
XFILLER_0_55_125 VPWR VGND VPWR VGND sky130_ef_sc_hd__decap_12
XFILLER_0_50_27 VGND VGND VPWR VPWR sky130_fd_sc_hd__fill_1
XFILLER_0_55_169 VPWR VGND VPWR VGND sky130_ef_sc_hd__decap_12
XFILLER_0_11_217 VGND VGND VPWR VPWR sky130_fd_sc_hd__decap_6
XFILLER_0_59_69 VPWR VGND VPWR VGND sky130_ef_sc_hd__decap_12
XFILLER_0_34_309 VPWR VGND VPWR VGND sky130_ef_sc_hd__decap_12
XFILLER_0_6_233 VPWR VGND VPWR VGND sky130_ef_sc_hd__decap_12
XFILLER_0_6_277 VPWR VGND VPWR VGND sky130_ef_sc_hd__decap_12
XFILLER_0_19_317 VPWR VGND VPWR VGND sky130_ef_sc_hd__decap_12
XFILLER_0_27_361 VPWR VGND VPWR VGND sky130_ef_sc_hd__decap_12
XFILLER_0_37_125 VPWR VGND VPWR VGND sky130_ef_sc_hd__decap_12
XFILLER_0_52_139 VGND VGND VPWR VPWR sky130_fd_sc_hd__fill_1
XFILLER_0_37_169 VPWR VGND VPWR VGND sky130_ef_sc_hd__decap_12
X_062_ net65 VGND VGND VPWR VPWR _034_ sky130_fd_sc_hd__buf_4
XFILLER_0_29_39 VPWR VGND VPWR VGND sky130_ef_sc_hd__decap_12
XFILLER_0_61_15 VPWR VGND VPWR VGND sky130_ef_sc_hd__decap_12
XFILLER_0_45_27 VPWR VGND VPWR VGND sky130_ef_sc_hd__decap_12
XFILLER_0_0_29 VGND VGND VPWR VPWR sky130_fd_sc_hd__decap_4
XFILLER_0_56_401 VGND VGND VPWR VPWR sky130_fd_sc_hd__decap_6
XFILLER_0_9_27 VPWR VGND VPWR VGND sky130_ef_sc_hd__decap_12
XFILLER_0_16_309 VPWR VGND VPWR VGND sky130_ef_sc_hd__decap_12
XFILLER_0_51_161 VGND VGND VPWR VPWR sky130_fd_sc_hd__decap_6
XFILLER_0_3_225 VPWR VGND VPWR VGND sky130_ef_sc_hd__decap_12
XFILLER_0_10_41 VPWR VGND VPWR VGND sky130_ef_sc_hd__decap_12
XFILLER_0_10_85 VPWR VGND VPWR VGND sky130_ef_sc_hd__decap_12
XFILLER_0_59_261 VPWR VGND VPWR VGND sky130_ef_sc_hd__decap_12
XFILLER_0_35_93 VPWR VGND VPWR VGND sky130_ef_sc_hd__decap_12
XFILLER_0_19_125 VPWR VGND VPWR VGND sky130_ef_sc_hd__decap_12
XFILLER_0_51_81 VPWR VGND VPWR VGND sky130_ef_sc_hd__decap_12
XFILLER_0_34_139 VGND VGND VPWR VPWR sky130_fd_sc_hd__fill_1
XFILLER_0_30_301 VGND VGND VPWR VPWR sky130_fd_sc_hd__decap_6
XFILLER_0_19_169 VPWR VGND VPWR VGND sky130_ef_sc_hd__decap_12
XFILLER_0_30_389 VPWR VGND VPWR VGND sky130_ef_sc_hd__decap_12
XFILLER_0_30_345 VPWR VGND VPWR VGND sky130_ef_sc_hd__decap_12
XFILLER_0_38_401 VGND VGND VPWR VPWR sky130_fd_sc_hd__decap_6
XFILLER_0_25_106 VGND VGND VPWR VPWR sky130_fd_sc_hd__decap_6
XTAP_507 VGND VPWR sky130_fd_sc_hd__tapvpwrvgnd_1
XFILLER_0_40_109 VPWR VGND VPWR VGND sky130_ef_sc_hd__decap_12
XFILLER_0_33_161 VGND VGND VPWR VPWR sky130_fd_sc_hd__decap_6
X_114_ net8 net9 net10 net11 _040_ net66 VGND VGND VPWR VPWR _026_ sky130_fd_sc_hd__mux4_1
XTAP_529 VGND VPWR sky130_fd_sc_hd__tapvpwrvgnd_1
XFILLER_0_56_26 VGND VGND VPWR VPWR sky130_fd_sc_hd__fill_2
XTAP_518 VGND VPWR sky130_fd_sc_hd__tapvpwrvgnd_1
XFILLER_0_56_231 VPWR VGND VPWR VGND sky130_ef_sc_hd__decap_12
XFILLER_0_48_209 VPWR VGND VPWR VGND sky130_ef_sc_hd__decap_12
XFILLER_0_56_253 VPWR VGND VPWR VGND sky130_ef_sc_hd__decap_12
XFILLER_0_12_301 VGND VGND VPWR VPWR sky130_fd_sc_hd__decap_6
XFILLER_0_21_51 VGND VGND VPWR VPWR sky130_fd_sc_hd__decap_4
XFILLER_0_12_345 VPWR VGND VPWR VGND sky130_ef_sc_hd__decap_12
XFILLER_0_12_389 VPWR VGND VPWR VGND sky130_ef_sc_hd__decap_12
XFILLER_0_24_194 VGND VGND VPWR VPWR sky130_fd_sc_hd__fill_2
XFILLER_0_62_289 VPWR VGND VPWR VGND sky130_ef_sc_hd__decap_12
XFILLER_0_62_245 VGND VGND VPWR VPWR sky130_fd_sc_hd__decap_6
XFILLER_0_30_153 VPWR VGND VPWR VGND sky130_ef_sc_hd__decap_12
XFILLER_0_7_361 VPWR VGND VPWR VGND sky130_ef_sc_hd__decap_12
XFILLER_0_15_161 VGND VGND VPWR VPWR sky130_fd_sc_hd__decap_6
XFILLER_0_22_109 VPWR VGND VPWR VGND sky130_ef_sc_hd__decap_12
XFILLER_0_30_197 VPWR VGND VPWR VGND sky130_ef_sc_hd__decap_12
XFILLER_0_26_18 VGND VGND VPWR VPWR sky130_fd_sc_hd__decap_8
XFILLER_0_26_29 VPWR VGND VPWR VGND sky130_ef_sc_hd__decap_12
XFILLER_0_53_223 VGND VGND VPWR VPWR sky130_fd_sc_hd__fill_1
XFILLER_0_38_253 VPWR VGND VPWR VGND sky130_ef_sc_hd__decap_12
XTAP_348 VGND VPWR sky130_fd_sc_hd__tapvpwrvgnd_1
XTAP_337 VGND VPWR sky130_fd_sc_hd__tapvpwrvgnd_1
XTAP_304 VGND VPWR sky130_fd_sc_hd__tapvpwrvgnd_1
XTAP_315 VGND VPWR sky130_fd_sc_hd__tapvpwrvgnd_1
XTAP_326 VGND VPWR sky130_fd_sc_hd__tapvpwrvgnd_1
XTAP_359 VGND VPWR sky130_fd_sc_hd__tapvpwrvgnd_1
XFILLER_0_32_83 VGND VGND VPWR VPWR sky130_fd_sc_hd__fill_1
XFILLER_0_44_289 VPWR VGND VPWR VGND sky130_ef_sc_hd__decap_12
XFILLER_0_44_245 VGND VGND VPWR VPWR sky130_fd_sc_hd__decap_6
XFILLER_0_12_153 VPWR VGND VPWR VGND sky130_ef_sc_hd__decap_12
XFILLER_0_12_197 VPWR VGND VPWR VGND sky130_ef_sc_hd__decap_12
XFILLER_0_35_223 VGND VGND VPWR VPWR sky130_fd_sc_hd__fill_1
XFILLER_0_53_27 VPWR VGND VPWR VGND sky130_ef_sc_hd__decap_12
XFILLER_0_37_39 VPWR VGND VPWR VGND sky130_ef_sc_hd__decap_12
XFILLER_0_41_237 VPWR VGND VPWR VGND sky130_ef_sc_hd__decap_12
XFILLER_0_26_289 VPWR VGND VPWR VGND sky130_ef_sc_hd__decap_12
XTAP_178 VGND VPWR sky130_fd_sc_hd__tapvpwrvgnd_1
XTAP_167 VGND VPWR sky130_fd_sc_hd__tapvpwrvgnd_1
XTAP_156 VGND VPWR sky130_fd_sc_hd__tapvpwrvgnd_1
XTAP_145 VGND VPWR sky130_fd_sc_hd__tapvpwrvgnd_1
XTAP_134 VGND VPWR sky130_fd_sc_hd__tapvpwrvgnd_1
XTAP_189 VGND VPWR sky130_fd_sc_hd__tapvpwrvgnd_1
XFILLER_0_49_337 VPWR VGND VPWR VGND sky130_ef_sc_hd__decap_12
XFILLER_0_43_93 VPWR VGND VPWR VGND sky130_ef_sc_hd__decap_12
XFILLER_0_17_223 VGND VGND VPWR VPWR sky130_fd_sc_hd__fill_1
XFILLER_0_17_278 VGND VGND VPWR VPWR sky130_fd_sc_hd__fill_2
XFILLER_0_7_93 VPWR VGND VPWR VGND sky130_ef_sc_hd__decap_12
XFILLER_0_55_329 VGND VGND VPWR VPWR sky130_fd_sc_hd__decap_6
XFILLER_0_63_373 VPWR VGND VPWR VGND sky130_ef_sc_hd__decap_12
XFILLER_0_2_109 VPWR VGND VPWR VGND sky130_ef_sc_hd__decap_12
XFILLER_0_23_237 VPWR VGND VPWR VGND sky130_ef_sc_hd__decap_12
XFILLER_0_31_281 VPWR VGND VPWR VGND sky130_ef_sc_hd__decap_12
XFILLER_0_64_26 VGND VGND VPWR VPWR sky130_fd_sc_hd__fill_2
XFILLER_0_58_189 VGND VGND VPWR VPWR sky130_fd_sc_hd__decap_6
XFILLER_0_46_307 VGND VGND VPWR VPWR sky130_fd_sc_hd__fill_1
XFILLER_0_49_167 VGND VGND VPWR VPWR sky130_fd_sc_hd__fill_1
XFILLER_0_37_329 VGND VGND VPWR VPWR sky130_fd_sc_hd__decap_6
XFILLER_0_60_365 VPWR VGND VPWR VGND sky130_ef_sc_hd__decap_12
XFILLER_0_60_321 VPWR VGND VPWR VGND sky130_ef_sc_hd__decap_12
XFILLER_0_45_373 VPWR VGND VPWR VGND sky130_ef_sc_hd__decap_12
XFILLER_0_13_281 VPWR VGND VPWR VGND sky130_ef_sc_hd__decap_12
XFILLER_0_34_29 VPWR VGND VPWR VGND sky130_ef_sc_hd__decap_12
XFILLER_0_34_18 VGND VGND VPWR VPWR sky130_fd_sc_hd__decap_8
XFILLER_0_55_137 VPWR VGND VPWR VGND sky130_ef_sc_hd__decap_12
XFILLER_0_63_181 VGND VGND VPWR VPWR sky130_fd_sc_hd__decap_8
XFILLER_0_59_15 VPWR VGND VPWR VGND sky130_ef_sc_hd__decap_12
XFILLER_0_19_329 VGND VGND VPWR VPWR sky130_fd_sc_hd__decap_6
XFILLER_0_42_365 VPWR VGND VPWR VGND sky130_ef_sc_hd__decap_12
XFILLER_0_42_321 VPWR VGND VPWR VGND sky130_ef_sc_hd__decap_12
XFILLER_0_40_83 VGND VGND VPWR VPWR sky130_fd_sc_hd__fill_1
XFILLER_0_6_245 VGND VGND VPWR VPWR sky130_fd_sc_hd__decap_6
XFILLER_0_6_289 VPWR VGND VPWR VGND sky130_ef_sc_hd__decap_12
XFILLER_0_27_373 VPWR VGND VPWR VGND sky130_ef_sc_hd__decap_12
XFILLER_0_49_81 VPWR VGND VPWR VGND sky130_ef_sc_hd__decap_12
XFILLER_0_10_251 VGND VGND VPWR VPWR sky130_fd_sc_hd__fill_1
XFILLER_0_4_83 VGND VGND VPWR VPWR sky130_fd_sc_hd__fill_1
XFILLER_0_37_137 VPWR VGND VPWR VGND sky130_ef_sc_hd__decap_12
XFILLER_0_60_195 VGND VGND VPWR VPWR sky130_fd_sc_hd__fill_1
XFILLER_0_45_181 VPWR VGND VPWR VGND sky130_ef_sc_hd__decap_12
X_061_ net66 VGND VGND VPWR VPWR _033_ sky130_fd_sc_hd__inv_2
XFILLER_0_61_27 VPWR VGND VPWR VGND sky130_ef_sc_hd__decap_12
XFILLER_0_45_39 VPWR VGND VPWR VGND sky130_ef_sc_hd__decap_12
XFILLER_0_9_39 VPWR VGND VPWR VGND sky130_ef_sc_hd__decap_12
XFILLER_0_24_321 VPWR VGND VPWR VGND sky130_ef_sc_hd__decap_12
XFILLER_0_3_237 VPWR VGND VPWR VGND sky130_ef_sc_hd__decap_12
XFILLER_0_10_53 VPWR VGND VPWR VGND sky130_ef_sc_hd__decap_12
XFILLER_0_10_97 VPWR VGND VPWR VGND sky130_ef_sc_hd__decap_12
XFILLER_0_24_365 VPWR VGND VPWR VGND sky130_ef_sc_hd__decap_12
XFILLER_0_19_51 VGND VGND VPWR VPWR sky130_fd_sc_hd__decap_4
XFILLER_0_59_273 VGND VGND VPWR VPWR sky130_fd_sc_hd__decap_6
XFILLER_0_19_137 VPWR VGND VPWR VGND sky130_ef_sc_hd__decap_12
XFILLER_0_51_93 VPWR VGND VPWR VGND sky130_ef_sc_hd__decap_12
XFILLER_0_42_195 VGND VGND VPWR VPWR sky130_fd_sc_hd__fill_1
XFILLER_0_27_181 VGND VGND VPWR VPWR sky130_fd_sc_hd__decap_4
XFILLER_0_30_357 VGND VGND VPWR VPWR sky130_fd_sc_hd__decap_6
XFILLER_0_53_405 VGND VGND VPWR VPWR sky130_fd_sc_hd__fill_2
X_113_ net67 _024_ VGND VGND VPWR VPWR _025_ sky130_fd_sc_hd__or2_1
XTAP_519 VGND VPWR sky130_fd_sc_hd__tapvpwrvgnd_1
XTAP_508 VGND VPWR sky130_fd_sc_hd__tapvpwrvgnd_1
XFILLER_0_21_335 VGND VGND VPWR VPWR sky130_fd_sc_hd__fill_1
XFILLER_0_56_265 VPWR VGND VPWR VGND sky130_ef_sc_hd__decap_12
XFILLER_0_56_243 VGND VGND VPWR VPWR sky130_fd_sc_hd__decap_8
XFILLER_0_8_307 VGND VGND VPWR VPWR sky130_fd_sc_hd__fill_1
XFILLER_0_12_357 VGND VGND VPWR VPWR sky130_fd_sc_hd__decap_6
XFILLER_0_1_51 VGND VGND VPWR VPWR sky130_fd_sc_hd__decap_4
XFILLER_0_27_3 VPWR VGND VPWR VGND sky130_ef_sc_hd__decap_12
XFILLER_0_35_405 VGND VGND VPWR VPWR sky130_fd_sc_hd__fill_2
XFILLER_0_7_373 VPWR VGND VPWR VGND sky130_ef_sc_hd__decap_12
XFILLER_0_30_165 VPWR VGND VPWR VGND sky130_ef_sc_hd__decap_12
XFILLER_0_30_121 VPWR VGND VPWR VGND sky130_ef_sc_hd__decap_12
XFILLER_0_42_29 VPWR VGND VPWR VGND sky130_ef_sc_hd__decap_12
XFILLER_0_42_18 VGND VGND VPWR VPWR sky130_fd_sc_hd__decap_8
XFILLER_0_38_265 VPWR VGND VPWR VGND sky130_ef_sc_hd__decap_12
XFILLER_0_38_221 VPWR VGND VPWR VGND sky130_ef_sc_hd__decap_12
XFILLER_0_53_279 VGND VGND VPWR VPWR sky130_fd_sc_hd__fill_1
XTAP_349 VGND VPWR sky130_fd_sc_hd__tapvpwrvgnd_1
XTAP_338 VGND VPWR sky130_fd_sc_hd__tapvpwrvgnd_1
XFILLER_0_6_29 VPWR VGND VPWR VGND sky130_ef_sc_hd__decap_12
XTAP_305 VGND VPWR sky130_fd_sc_hd__tapvpwrvgnd_1
XTAP_316 VGND VPWR sky130_fd_sc_hd__tapvpwrvgnd_1
XTAP_327 VGND VPWR sky130_fd_sc_hd__tapvpwrvgnd_1
XFILLER_0_16_41 VPWR VGND VPWR VGND sky130_ef_sc_hd__decap_12
XFILLER_0_16_85 VGND VGND VPWR VPWR sky130_fd_sc_hd__decap_6
XFILLER_0_17_405 VGND VGND VPWR VPWR sky130_fd_sc_hd__fill_2
XFILLER_0_4_365 VPWR VGND VPWR VGND sky130_ef_sc_hd__decap_12
XFILLER_0_4_321 VPWR VGND VPWR VGND sky130_ef_sc_hd__decap_12
XFILLER_0_12_121 VPWR VGND VPWR VGND sky130_ef_sc_hd__decap_12
XFILLER_0_12_165 VPWR VGND VPWR VGND sky130_ef_sc_hd__decap_12
XFILLER_0_57_81 VPWR VGND VPWR VGND sky130_ef_sc_hd__decap_12
XFILLER_0_35_279 VGND VGND VPWR VPWR sky130_fd_sc_hd__fill_1
XFILLER_0_7_181 VPWR VGND VPWR VGND sky130_ef_sc_hd__decap_12
XFILLER_0_53_39 VPWR VGND VPWR VGND sky130_ef_sc_hd__decap_12
XFILLER_0_41_249 VPWR VGND VPWR VGND sky130_ef_sc_hd__decap_12
XFILLER_0_41_205 VPWR VGND VPWR VGND sky130_ef_sc_hd__decap_12
XFILLER_0_1_335 VGND VGND VPWR VPWR sky130_fd_sc_hd__fill_1
XTAP_179 VGND VPWR sky130_fd_sc_hd__tapvpwrvgnd_1
XTAP_168 VGND VPWR sky130_fd_sc_hd__tapvpwrvgnd_1
XTAP_157 VGND VPWR sky130_fd_sc_hd__tapvpwrvgnd_1
XTAP_146 VGND VPWR sky130_fd_sc_hd__tapvpwrvgnd_1
XTAP_135 VGND VPWR sky130_fd_sc_hd__tapvpwrvgnd_1
XFILLER_0_27_51 VGND VGND VPWR VPWR sky130_fd_sc_hd__decap_4
XFILLER_0_49_349 VPWR VGND VPWR VGND sky130_ef_sc_hd__decap_12
XFILLER_0_49_305 VPWR VGND VPWR VGND sky130_ef_sc_hd__decap_12
XFILLER_0_57_393 VPWR VGND VPWR VGND sky130_ef_sc_hd__decap_12
XFILLER_0_17_246 VPWR VGND VPWR VGND sky130_ef_sc_hd__decap_12
XFILLER_0_4_195 VGND VGND VPWR VPWR sky130_fd_sc_hd__fill_1
XFILLER_0_63_385 VGND VGND VPWR VPWR sky130_fd_sc_hd__decap_6
XFILLER_0_23_205 VPWR VGND VPWR VGND sky130_ef_sc_hd__decap_12
XFILLER_0_23_249 VPWR VGND VPWR VGND sky130_ef_sc_hd__decap_12
XFILLER_0_31_293 VPWR VGND VPWR VGND sky130_ef_sc_hd__decap_12
XFILLER_0_54_363 VGND VGND VPWR VPWR sky130_fd_sc_hd__fill_1
XFILLER_0_39_393 VPWR VGND VPWR VGND sky130_ef_sc_hd__decap_12
XFILLER_0_38_83 VGND VGND VPWR VPWR sky130_fd_sc_hd__fill_1
XFILLER_0_64_105 VGND VGND VPWR VPWR sky130_fd_sc_hd__decap_6
XFILLER_0_49_113 VPWR VGND VPWR VGND sky130_ef_sc_hd__decap_12
XFILLER_0_60_377 VPWR VGND VPWR VGND sky130_ef_sc_hd__decap_12
XFILLER_0_60_333 VPWR VGND VPWR VGND sky130_ef_sc_hd__decap_12
XFILLER_0_45_385 VGND VGND VPWR VPWR sky130_fd_sc_hd__decap_6
XFILLER_0_13_293 VPWR VGND VPWR VGND sky130_ef_sc_hd__decap_12
XFILLER_0_55_149 VPWR VGND VPWR VGND sky130_ef_sc_hd__decap_12
XFILLER_0_55_105 VGND VGND VPWR VPWR sky130_fd_sc_hd__decap_6
XFILLER_0_50_29 VPWR VGND VPWR VGND sky130_ef_sc_hd__decap_12
XFILLER_0_36_363 VGND VGND VPWR VPWR sky130_fd_sc_hd__fill_1
XFILLER_0_59_27 VPWR VGND VPWR VGND sky130_ef_sc_hd__decap_12
XFILLER_0_24_85 VPWR VGND VPWR VGND sky130_ef_sc_hd__decap_12
XFILLER_0_42_377 VPWR VGND VPWR VGND sky130_ef_sc_hd__decap_12
XFILLER_0_42_333 VPWR VGND VPWR VGND sky130_ef_sc_hd__decap_12
XFILLER_0_27_385 VGND VGND VPWR VPWR sky130_fd_sc_hd__decap_6
XFILLER_0_57_3 VPWR VGND VPWR VGND sky130_ef_sc_hd__decap_12
XFILLER_0_49_93 VPWR VGND VPWR VGND sky130_ef_sc_hd__decap_12
XFILLER_0_37_149 VPWR VGND VPWR VGND sky130_ef_sc_hd__decap_12
XFILLER_0_37_105 VGND VGND VPWR VPWR sky130_fd_sc_hd__decap_6
XFILLER_0_18_363 VGND VGND VPWR VPWR sky130_fd_sc_hd__fill_1
XFILLER_0_60_141 VPWR VGND VPWR VGND sky130_ef_sc_hd__decap_12
XFILLER_0_45_193 VPWR VGND VPWR VGND sky130_ef_sc_hd__decap_12
X_060_ net67 VGND VGND VPWR VPWR _032_ sky130_fd_sc_hd__inv_2
XFILLER_0_61_39 VPWR VGND VPWR VGND sky130_ef_sc_hd__decap_12
XFILLER_0_3_249 VPWR VGND VPWR VGND sky130_ef_sc_hd__decap_12
XFILLER_0_3_205 VPWR VGND VPWR VGND sky130_ef_sc_hd__decap_12
XFILLER_0_24_333 VPWR VGND VPWR VGND sky130_ef_sc_hd__decap_12
XFILLER_0_24_377 VPWR VGND VPWR VGND sky130_ef_sc_hd__decap_12
XFILLER_0_10_65 VPWR VGND VPWR VGND sky130_ef_sc_hd__decap_12
XFILLER_0_35_51 VGND VGND VPWR VPWR sky130_fd_sc_hd__decap_4
XFILLER_0_19_105 VGND VGND VPWR VPWR sky130_fd_sc_hd__decap_6
XFILLER_0_19_149 VPWR VGND VPWR VGND sky130_ef_sc_hd__decap_12
XFILLER_0_42_141 VPWR VGND VPWR VGND sky130_ef_sc_hd__decap_12
X_112_ net17 net18 net19 net20 net65 net66 VGND VGND VPWR VPWR _024_ sky130_fd_sc_hd__mux4_1
XTAP_509 VGND VPWR sky130_fd_sc_hd__tapvpwrvgnd_1
XFILLER_0_0_219 VGND VGND VPWR VPWR sky130_fd_sc_hd__fill_1
XFILLER_0_56_277 VPWR VGND VPWR VGND sky130_ef_sc_hd__decap_12
XFILLER_0_24_141 VPWR VGND VPWR VGND sky130_ef_sc_hd__decap_12
XFILLER_0_46_83 VGND VGND VPWR VPWR sky130_fd_sc_hd__fill_1
XFILLER_0_7_385 VGND VGND VPWR VPWR sky130_fd_sc_hd__decap_6
XFILLER_0_30_177 VPWR VGND VPWR VGND sky130_ef_sc_hd__decap_12
XFILLER_0_30_133 VGND VGND VPWR VPWR sky130_fd_sc_hd__decap_6
XFILLER_0_11_391 VGND VGND VPWR VPWR sky130_fd_sc_hd__fill_1
XFILLER_0_38_277 VPWR VGND VPWR VGND sky130_ef_sc_hd__decap_12
XFILLER_0_38_233 VPWR VGND VPWR VGND sky130_ef_sc_hd__decap_12
XFILLER_0_53_225 VPWR VGND VPWR VGND sky130_ef_sc_hd__decap_12
XFILLER_0_21_111 VGND VGND VPWR VPWR sky130_fd_sc_hd__fill_1
XTAP_339 VGND VPWR sky130_fd_sc_hd__tapvpwrvgnd_1
XTAP_306 VGND VPWR sky130_fd_sc_hd__tapvpwrvgnd_1
XTAP_317 VGND VPWR sky130_fd_sc_hd__tapvpwrvgnd_1
XTAP_328 VGND VPWR sky130_fd_sc_hd__tapvpwrvgnd_1
XFILLER_0_16_53 VPWR VGND VPWR VGND sky130_ef_sc_hd__decap_12
XFILLER_0_32_85 VPWR VGND VPWR VGND sky130_ef_sc_hd__decap_12
XFILLER_0_32_41 VPWR VGND VPWR VGND sky130_ef_sc_hd__decap_12
XFILLER_0_4_333 VPWR VGND VPWR VGND sky130_ef_sc_hd__decap_12
XFILLER_0_4_377 VPWR VGND VPWR VGND sky130_ef_sc_hd__decap_12
XFILLER_0_12_133 VGND VGND VPWR VPWR sky130_fd_sc_hd__decap_6
XFILLER_0_12_177 VPWR VGND VPWR VGND sky130_ef_sc_hd__decap_12
XFILLER_0_57_93 VPWR VGND VPWR VGND sky130_ef_sc_hd__decap_12
XFILLER_0_35_225 VPWR VGND VPWR VGND sky130_ef_sc_hd__decap_12
XFILLER_0_7_193 VPWR VGND VPWR VGND sky130_ef_sc_hd__decap_12
XFILLER_0_9_3 VPWR VGND VPWR VGND sky130_ef_sc_hd__decap_12
XFILLER_0_26_247 VGND VGND VPWR VPWR sky130_fd_sc_hd__decap_4
XFILLER_0_41_217 VGND VGND VPWR VPWR sky130_fd_sc_hd__decap_6
XTAP_169 VGND VPWR sky130_fd_sc_hd__tapvpwrvgnd_1
XTAP_158 VGND VPWR sky130_fd_sc_hd__tapvpwrvgnd_1
XTAP_136 VGND VPWR sky130_fd_sc_hd__tapvpwrvgnd_1
XTAP_147 VGND VPWR sky130_fd_sc_hd__tapvpwrvgnd_1
XFILLER_0_64_309 VGND VGND VPWR VPWR sky130_fd_sc_hd__decap_8
XFILLER_0_57_361 VPWR VGND VPWR VGND sky130_ef_sc_hd__decap_12
XFILLER_0_49_317 VPWR VGND VPWR VGND sky130_ef_sc_hd__decap_12
XFILLER_0_43_51 VGND VGND VPWR VPWR sky130_fd_sc_hd__decap_4
XFILLER_0_32_206 VGND VGND VPWR VPWR sky130_fd_sc_hd__decap_4
XFILLER_0_4_141 VPWR VGND VPWR VGND sky130_ef_sc_hd__decap_12
XFILLER_0_17_258 VPWR VGND VPWR VGND sky130_ef_sc_hd__decap_12
XFILLER_0_7_51 VGND VGND VPWR VPWR sky130_fd_sc_hd__decap_4
XFILLER_0_0_380 VGND VGND VPWR VPWR sky130_fd_sc_hd__decap_4
XFILLER_0_48_29 VPWR VGND VPWR VGND sky130_ef_sc_hd__decap_12
XFILLER_0_48_18 VGND VGND VPWR VPWR sky130_fd_sc_hd__decap_8
XFILLER_0_31_261 VPWR VGND VPWR VGND sky130_ef_sc_hd__decap_12
XFILLER_0_23_217 VGND VGND VPWR VPWR sky130_fd_sc_hd__decap_6
XFILLER_0_46_309 VPWR VGND VPWR VGND sky130_ef_sc_hd__decap_12
XFILLER_0_39_361 VPWR VGND VPWR VGND sky130_ef_sc_hd__decap_12
XFILLER_0_1_111 VGND VGND VPWR VPWR sky130_fd_sc_hd__fill_1
XFILLER_0_10_401 VGND VGND VPWR VPWR sky130_fd_sc_hd__decap_3
XFILLER_0_54_83 VGND VGND VPWR VPWR sky130_fd_sc_hd__fill_1
XFILLER_0_64_139 VGND VGND VPWR VPWR sky130_fd_sc_hd__fill_1
XFILLER_0_49_169 VPWR VGND VPWR VGND sky130_ef_sc_hd__decap_12
XFILLER_0_49_125 VPWR VGND VPWR VGND sky130_ef_sc_hd__decap_12
XFILLER_0_60_389 VPWR VGND VPWR VGND sky130_ef_sc_hd__decap_12
XFILLER_0_60_345 VPWR VGND VPWR VGND sky130_ef_sc_hd__decap_12
XFILLER_0_13_261 VPWR VGND VPWR VGND sky130_ef_sc_hd__decap_12
XFILLER_0_20_209 VPWR VGND VPWR VGND sky130_ef_sc_hd__decap_12
XFILLER_0_28_309 VPWR VGND VPWR VGND sky130_ef_sc_hd__decap_12
XFILLER_0_63_161 VGND VGND VPWR VPWR sky130_fd_sc_hd__decap_6
XFILLER_0_59_39 VPWR VGND VPWR VGND sky130_ef_sc_hd__decap_12
XFILLER_0_46_139 VGND VGND VPWR VPWR sky130_fd_sc_hd__fill_1
XFILLER_0_24_97 VPWR VGND VPWR VGND sky130_ef_sc_hd__decap_12
XFILLER_0_42_389 VPWR VGND VPWR VGND sky130_ef_sc_hd__decap_12
XFILLER_0_42_345 VPWR VGND VPWR VGND sky130_ef_sc_hd__decap_12
XFILLER_0_42_301 VGND VGND VPWR VPWR sky130_fd_sc_hd__decap_6
XFILLER_0_40_85 VPWR VGND VPWR VGND sky130_ef_sc_hd__decap_12
XFILLER_0_40_41 VPWR VGND VPWR VGND sky130_ef_sc_hd__decap_12
XFILLER_0_4_85 VPWR VGND VPWR VGND sky130_ef_sc_hd__decap_12
XFILLER_0_4_41 VPWR VGND VPWR VGND sky130_ef_sc_hd__decap_12
XFILLER_0_10_253 VPWR VGND VPWR VGND sky130_ef_sc_hd__decap_12
XFILLER_0_52_109 VPWR VGND VPWR VGND sky130_ef_sc_hd__decap_12
XFILLER_0_45_161 VGND VGND VPWR VPWR sky130_fd_sc_hd__decap_6
XFILLER_0_60_197 VPWR VGND VPWR VGND sky130_ef_sc_hd__decap_12
XFILLER_0_60_153 VPWR VGND VPWR VGND sky130_ef_sc_hd__decap_12
XFILLER_0_28_139 VGND VGND VPWR VPWR sky130_fd_sc_hd__fill_1
XFILLER_0_3_217 VGND VGND VPWR VPWR sky130_fd_sc_hd__decap_6
XFILLER_0_10_77 VGND VGND VPWR VPWR sky130_fd_sc_hd__decap_6
XFILLER_0_24_345 VPWR VGND VPWR VGND sky130_ef_sc_hd__decap_12
XFILLER_0_24_389 VPWR VGND VPWR VGND sky130_ef_sc_hd__decap_12
XFILLER_0_51_51 VGND VGND VPWR VPWR sky130_fd_sc_hd__decap_4
XFILLER_0_34_109 VPWR VGND VPWR VGND sky130_ef_sc_hd__decap_12
XFILLER_0_42_197 VPWR VGND VPWR VGND sky130_ef_sc_hd__decap_12
XFILLER_0_42_153 VPWR VGND VPWR VGND sky130_ef_sc_hd__decap_12
X_111_ _032_ _022_ VGND VGND VPWR VPWR _023_ sky130_fd_sc_hd__or2_1
XFILLER_0_21_337 VPWR VGND VPWR VGND sky130_ef_sc_hd__decap_12
XFILLER_0_56_29 VPWR VGND VPWR VGND sky130_ef_sc_hd__decap_12
XFILLER_0_56_18 VGND VGND VPWR VPWR sky130_fd_sc_hd__decap_8
XFILLER_0_56_289 VPWR VGND VPWR VGND sky130_ef_sc_hd__decap_12
XFILLER_0_8_309 VPWR VGND VPWR VGND sky130_ef_sc_hd__decap_12
XFILLER_0_24_153 VPWR VGND VPWR VGND sky130_ef_sc_hd__decap_12
XFILLER_0_24_197 VPWR VGND VPWR VGND sky130_ef_sc_hd__decap_12
XFILLER_0_34_6 VPWR VGND VPWR VGND sky130_ef_sc_hd__decap_12
XFILLER_0_62_83 VGND VGND VPWR VPWR sky130_fd_sc_hd__fill_1
XFILLER_0_47_223 VGND VGND VPWR VPWR sky130_fd_sc_hd__fill_1
XFILLER_0_30_189 VGND VGND VPWR VPWR sky130_fd_sc_hd__decap_6
XFILLER_0_53_237 VPWR VGND VPWR VGND sky130_ef_sc_hd__decap_12
XFILLER_0_38_289 VPWR VGND VPWR VGND sky130_ef_sc_hd__decap_12
XFILLER_0_38_245 VGND VGND VPWR VPWR sky130_fd_sc_hd__decap_6
XFILLER_0_61_281 VPWR VGND VPWR VGND sky130_ef_sc_hd__decap_12
XFILLER_0_21_167 VGND VGND VPWR VPWR sky130_fd_sc_hd__fill_1
XTAP_307 VGND VPWR sky130_fd_sc_hd__tapvpwrvgnd_1
XTAP_318 VGND VPWR sky130_fd_sc_hd__tapvpwrvgnd_1
XTAP_329 VGND VPWR sky130_fd_sc_hd__tapvpwrvgnd_1
XFILLER_0_29_223 VGND VGND VPWR VPWR sky130_fd_sc_hd__fill_1
XFILLER_0_16_65 VPWR VGND VPWR VGND sky130_ef_sc_hd__decap_12
XFILLER_0_32_97 VPWR VGND VPWR VGND sky130_ef_sc_hd__decap_12
XFILLER_0_32_53 VPWR VGND VPWR VGND sky130_ef_sc_hd__decap_12
XFILLER_0_4_345 VPWR VGND VPWR VGND sky130_ef_sc_hd__decap_12
XFILLER_0_4_301 VGND VGND VPWR VPWR sky130_fd_sc_hd__decap_6
XFILLER_0_8_139 VGND VGND VPWR VPWR sky130_fd_sc_hd__fill_1
XFILLER_0_4_389 VPWR VGND VPWR VGND sky130_ef_sc_hd__decap_12
XFILLER_0_12_189 VGND VGND VPWR VPWR sky130_fd_sc_hd__decap_6
XFILLER_0_32_3 VPWR VGND VPWR VGND sky130_ef_sc_hd__decap_12
XFILLER_0_35_237 VPWR VGND VPWR VGND sky130_ef_sc_hd__decap_12
XFILLER_0_43_281 VPWR VGND VPWR VGND sky130_ef_sc_hd__decap_12
XFILLER_0_7_161 VGND VGND VPWR VPWR sky130_fd_sc_hd__decap_6
XFILLER_0_58_307 VGND VGND VPWR VPWR sky130_fd_sc_hd__fill_1
XFILLER_0_1_337 VPWR VGND VPWR VGND sky130_ef_sc_hd__decap_12
XTAP_148 VGND VPWR sky130_fd_sc_hd__tapvpwrvgnd_1
XTAP_137 VGND VPWR sky130_fd_sc_hd__tapvpwrvgnd_1
XTAP_159 VGND VPWR sky130_fd_sc_hd__tapvpwrvgnd_1
XFILLER_0_57_373 VPWR VGND VPWR VGND sky130_ef_sc_hd__decap_12
XFILLER_0_49_329 VGND VGND VPWR VPWR sky130_fd_sc_hd__decap_6
XFILLER_0_40_251 VGND VGND VPWR VPWR sky130_fd_sc_hd__fill_1
XFILLER_0_4_197 VPWR VGND VPWR VGND sky130_ef_sc_hd__decap_12
XFILLER_0_4_153 VPWR VGND VPWR VGND sky130_ef_sc_hd__decap_12
XFILLER_0_25_281 VPWR VGND VPWR VGND sky130_ef_sc_hd__decap_12
XFILLER_0_31_273 VGND VGND VPWR VPWR sky130_fd_sc_hd__decap_6
XFILLER_0_64_29 VGND VGND VPWR VPWR sky130_fd_sc_hd__decap_4
XFILLER_0_54_321 VPWR VGND VPWR VGND sky130_ef_sc_hd__decap_12
XFILLER_0_39_373 VPWR VGND VPWR VGND sky130_ef_sc_hd__decap_12
XFILLER_0_13_55 VGND VGND VPWR VPWR sky130_fd_sc_hd__fill_1
XFILLER_0_54_365 VPWR VGND VPWR VGND sky130_ef_sc_hd__decap_12
XFILLER_0_22_251 VGND VGND VPWR VPWR sky130_fd_sc_hd__fill_1
XFILLER_0_38_85 VPWR VGND VPWR VGND sky130_ef_sc_hd__decap_12
XFILLER_0_38_41 VPWR VGND VPWR VGND sky130_ef_sc_hd__decap_12
XFILLER_0_1_167 VGND VGND VPWR VPWR sky130_fd_sc_hd__fill_1
XFILLER_0_49_137 VPWR VGND VPWR VGND sky130_ef_sc_hd__decap_12
XFILLER_0_60_302 VGND VGND VPWR VPWR sky130_fd_sc_hd__decap_6
XFILLER_0_57_181 VPWR VGND VPWR VGND sky130_ef_sc_hd__decap_12
XFILLER_0_9_223 VGND VGND VPWR VPWR sky130_fd_sc_hd__fill_1
XFILLER_0_60_357 VGND VGND VPWR VPWR sky130_fd_sc_hd__decap_6
XFILLER_0_13_273 VGND VGND VPWR VPWR sky130_fd_sc_hd__decap_6
XTAP_490 VGND VPWR sky130_fd_sc_hd__tapvpwrvgnd_1
XFILLER_0_36_321 VPWR VGND VPWR VGND sky130_ef_sc_hd__decap_12
XFILLER_0_51_335 VGND VGND VPWR VPWR sky130_fd_sc_hd__fill_1
XFILLER_0_36_365 VPWR VGND VPWR VGND sky130_ef_sc_hd__decap_12
XFILLER_0_39_181 VPWR VGND VPWR VGND sky130_ef_sc_hd__decap_12
XFILLER_0_40_53 VPWR VGND VPWR VGND sky130_ef_sc_hd__decap_12
XFILLER_0_54_195 VGND VGND VPWR VPWR sky130_fd_sc_hd__fill_1
XFILLER_0_49_51 VGND VGND VPWR VPWR sky130_fd_sc_hd__decap_4
XFILLER_0_42_357 VGND VGND VPWR VPWR sky130_fd_sc_hd__decap_6
XFILLER_0_40_97 VPWR VGND VPWR VGND sky130_ef_sc_hd__decap_12
XFILLER_0_10_221 VPWR VGND VPWR VGND sky130_ef_sc_hd__decap_12
XFILLER_0_4_97 VPWR VGND VPWR VGND sky130_ef_sc_hd__decap_12