*SPEF "ieee 1481-1999"
*DESIGN "mux64"
*DATE "11:11:11 Fri 11 11, 1111"
*VENDOR "OpenRCX"
*PROGRAM "Parallel Extraction"
*VERSION "1.0"
*DESIGN_FLOW "NAME_SCOPE LOCAL" "PIN_CAP NONE"
*DIVIDER /
*DELIMITER :
*BUS_DELIMITER []
*T_UNIT 1 NS
*C_UNIT 1 PF
*R_UNIT 1 OHM
*L_UNIT 1 HENRY

*NAME_MAP
*3 in[0]
*4 in[10]
*5 in[11]
*6 in[12]
*7 in[13]
*8 in[14]
*9 in[15]
*10 in[16]
*11 in[17]
*12 in[18]
*13 in[19]
*14 in[1]
*15 in[20]
*16 in[21]
*17 in[22]
*18 in[23]
*19 in[24]
*20 in[25]
*21 in[26]
*22 in[27]
*23 in[28]
*24 in[29]
*25 in[2]
*26 in[30]
*27 in[31]
*28 in[32]
*29 in[33]
*30 in[34]
*31 in[35]
*32 in[36]
*33 in[37]
*34 in[38]
*35 in[39]
*36 in[3]
*37 in[40]
*38 in[41]
*39 in[42]
*40 in[43]
*41 in[44]
*42 in[45]
*43 in[46]
*44 in[47]
*45 in[48]
*46 in[49]
*47 in[4]
*48 in[50]
*49 in[51]
*50 in[52]
*51 in[53]
*52 in[54]
*53 in[55]
*54 in[56]
*55 in[57]
*56 in[58]
*57 in[59]
*58 in[5]
*59 in[60]
*60 in[61]
*61 in[62]
*62 in[63]
*63 in[6]
*64 in[7]
*65 in[8]
*66 in[9]
*67 out
*68 sel[0]
*69 sel[1]
*70 sel[2]
*71 sel[3]
*72 sel[4]
*73 sel[5]
*74 _000_
*75 _001_
*76 _002_
*77 _003_
*78 _004_
*79 _005_
*80 _006_
*81 _007_
*82 _008_
*83 _009_
*84 _010_
*85 _011_
*86 _012_
*87 _013_
*88 _014_
*89 _015_
*90 _016_
*91 _017_
*92 _018_
*93 _019_
*94 _020_
*95 _021_
*96 _022_
*97 _023_
*98 _024_
*99 _025_
*100 _026_
*101 _027_
*102 _028_
*103 _029_
*104 _030_
*105 _031_
*106 _032_
*107 _033_
*108 _034_
*109 _035_
*110 _036_
*111 _037_
*112 _038_
*113 _039_
*114 _040_
*115 _041_
*116 _042_
*117 _043_
*118 _044_
*119 _045_
*120 _046_
*121 _047_
*122 _048_
*123 _049_
*124 _050_
*125 _051_
*126 _052_
*127 _053_
*128 _054_
*129 _055_
*130 _056_
*131 _057_
*132 _058_
*133 _059_
*134 net1
*135 net10
*136 net11
*137 net12
*138 net13
*139 net14
*140 net15
*141 net16
*142 net17
*143 net18
*144 net19
*145 net2
*146 net20
*147 net21
*148 net22
*149 net23
*150 net24
*151 net25
*152 net26
*153 net27
*154 net28
*155 net29
*156 net3
*157 net30
*158 net31
*159 net32
*160 net33
*161 net34
*162 net35
*163 net36
*164 net37
*165 net38
*166 net39
*167 net4
*168 net40
*169 net41
*170 net42
*171 net43
*172 net44
*173 net45
*174 net46
*175 net47
*176 net48
*177 net49
*178 net5
*179 net50
*180 net51
*181 net52
*182 net53
*183 net54
*184 net55
*185 net56
*186 net57
*187 net58
*188 net59
*189 net6
*190 net60
*191 net61
*192 net62
*193 net63
*194 net64
*195 net65
*196 net66
*197 net67
*198 net68
*199 net69
*200 net7
*201 net70
*202 net71
*203 net8
*204 net9
*205 FILLER_0_0_102
*206 FILLER_0_0_110
*207 FILLER_0_0_113
*208 FILLER_0_0_125
*209 FILLER_0_0_131
*210 FILLER_0_0_135
*211 FILLER_0_0_139
*212 FILLER_0_0_14
*213 FILLER_0_0_141
*214 FILLER_0_0_153
*215 FILLER_0_0_157
*216 FILLER_0_0_165
*217 FILLER_0_0_169
*218 FILLER_0_0_175
*219 FILLER_0_0_179
*220 FILLER_0_0_191
*221 FILLER_0_0_195
*222 FILLER_0_0_197
*223 FILLER_0_0_201
*224 FILLER_0_0_213
*225 FILLER_0_0_219
*226 FILLER_0_0_223
*227 FILLER_0_0_225
*228 FILLER_0_0_237
*229 FILLER_0_0_241
*230 FILLER_0_0_245
*231 FILLER_0_0_251
*232 FILLER_0_0_253
*233 FILLER_0_0_26
*234 FILLER_0_0_265
*235 FILLER_0_0_277
*236 FILLER_0_0_287
*237 FILLER_0_0_29
*238 FILLER_0_0_295
*239 FILLER_0_0_300
*240 FILLER_0_0_309
*241 FILLER_0_0_317
*242 FILLER_0_0_322
*243 FILLER_0_0_334
*244 FILLER_0_0_337
*245 FILLER_0_0_344
*246 FILLER_0_0_356
*247 FILLER_0_0_36
*248 FILLER_0_0_368
*249 FILLER_0_0_380
*250 FILLER_0_0_384
*251 FILLER_0_0_388
*252 FILLER_0_0_393
*253 FILLER_0_0_48
*254 FILLER_0_0_60
*255 FILLER_0_0_72
*256 FILLER_0_0_76
*257 FILLER_0_0_80
*258 FILLER_0_0_85
*259 FILLER_0_0_9
*260 FILLER_0_0_97
*261 FILLER_0_10_109
*262 FILLER_0_10_121
*263 FILLER_0_10_133
*264 FILLER_0_10_139
*265 FILLER_0_10_141
*266 FILLER_0_10_15
*267 FILLER_0_10_153
*268 FILLER_0_10_165
*269 FILLER_0_10_177
*270 FILLER_0_10_189
*271 FILLER_0_10_195
*272 FILLER_0_10_197
*273 FILLER_0_10_209
*274 FILLER_0_10_221
*275 FILLER_0_10_233
*276 FILLER_0_10_245
*277 FILLER_0_10_251
*278 FILLER_0_10_253
*279 FILLER_0_10_265
*280 FILLER_0_10_27
*281 FILLER_0_10_277
*282 FILLER_0_10_289
*283 FILLER_0_10_29
*284 FILLER_0_10_3
*285 FILLER_0_10_301
*286 FILLER_0_10_307
*287 FILLER_0_10_309
*288 FILLER_0_10_321
*289 FILLER_0_10_333
*290 FILLER_0_10_345
*291 FILLER_0_10_357
*292 FILLER_0_10_363
*293 FILLER_0_10_365
*294 FILLER_0_10_377
*295 FILLER_0_10_389
*296 FILLER_0_10_401
*297 FILLER_0_10_41
*298 FILLER_0_10_53
*299 FILLER_0_10_65
*300 FILLER_0_10_77
*301 FILLER_0_10_83
*302 FILLER_0_10_85
*303 FILLER_0_10_97
*304 FILLER_0_11_105
*305 FILLER_0_11_111
*306 FILLER_0_11_113
*307 FILLER_0_11_125
*308 FILLER_0_11_137
*309 FILLER_0_11_149
*310 FILLER_0_11_15
*311 FILLER_0_11_161
*312 FILLER_0_11_167
*313 FILLER_0_11_169
*314 FILLER_0_11_181
*315 FILLER_0_11_193
*316 FILLER_0_11_205
*317 FILLER_0_11_217
*318 FILLER_0_11_223
*319 FILLER_0_11_225
*320 FILLER_0_11_237
*321 FILLER_0_11_249
*322 FILLER_0_11_261
*323 FILLER_0_11_27
*324 FILLER_0_11_273
*325 FILLER_0_11_279
*326 FILLER_0_11_281
*327 FILLER_0_11_293
*328 FILLER_0_11_3
*329 FILLER_0_11_305
*330 FILLER_0_11_317
*331 FILLER_0_11_329
*332 FILLER_0_11_335
*333 FILLER_0_11_337
*334 FILLER_0_11_349
*335 FILLER_0_11_361
*336 FILLER_0_11_373
*337 FILLER_0_11_385
*338 FILLER_0_11_39
*339 FILLER_0_11_391
*340 FILLER_0_11_393
*341 FILLER_0_11_405
*342 FILLER_0_11_51
*343 FILLER_0_11_55
*344 FILLER_0_11_57
*345 FILLER_0_11_69
*346 FILLER_0_11_81
*347 FILLER_0_11_93
*348 FILLER_0_12_109
*349 FILLER_0_12_121
*350 FILLER_0_12_133
*351 FILLER_0_12_139
*352 FILLER_0_12_141
*353 FILLER_0_12_153
*354 FILLER_0_12_165
*355 FILLER_0_12_177
*356 FILLER_0_12_18
*357 FILLER_0_12_189
*358 FILLER_0_12_195
*359 FILLER_0_12_197
*360 FILLER_0_12_209
*361 FILLER_0_12_221
*362 FILLER_0_12_233
*363 FILLER_0_12_245
*364 FILLER_0_12_251
*365 FILLER_0_12_253
*366 FILLER_0_12_26
*367 FILLER_0_12_265
*368 FILLER_0_12_277
*369 FILLER_0_12_289
*370 FILLER_0_12_29
*371 FILLER_0_12_301
*372 FILLER_0_12_307
*373 FILLER_0_12_309
*374 FILLER_0_12_321
*375 FILLER_0_12_333
*376 FILLER_0_12_345
*377 FILLER_0_12_357
*378 FILLER_0_12_363
*379 FILLER_0_12_365
*380 FILLER_0_12_377
*381 FILLER_0_12_389
*382 FILLER_0_12_401
*383 FILLER_0_12_41
*384 FILLER_0_12_53
*385 FILLER_0_12_6
*386 FILLER_0_12_65
*387 FILLER_0_12_77
*388 FILLER_0_12_83
*389 FILLER_0_12_85
*390 FILLER_0_12_97
*391 FILLER_0_13_105
*392 FILLER_0_13_111
*393 FILLER_0_13_113
*394 FILLER_0_13_125
*395 FILLER_0_13_137
*396 FILLER_0_13_149
*397 FILLER_0_13_15
*398 FILLER_0_13_161
*399 FILLER_0_13_167
*400 FILLER_0_13_169
*401 FILLER_0_13_181
*402 FILLER_0_13_193
*403 FILLER_0_13_205
*404 FILLER_0_13_217
*405 FILLER_0_13_223
*406 FILLER_0_13_225
*407 FILLER_0_13_237
*408 FILLER_0_13_249
*409 FILLER_0_13_261
*410 FILLER_0_13_27
*411 FILLER_0_13_273
*412 FILLER_0_13_279
*413 FILLER_0_13_281
*414 FILLER_0_13_293
*415 FILLER_0_13_3
*416 FILLER_0_13_305
*417 FILLER_0_13_317
*418 FILLER_0_13_329
*419 FILLER_0_13_335
*420 FILLER_0_13_337
*421 FILLER_0_13_349
*422 FILLER_0_13_361
*423 FILLER_0_13_373
*424 FILLER_0_13_385
*425 FILLER_0_13_39
*426 FILLER_0_13_391
*427 FILLER_0_13_393
*428 FILLER_0_13_405
*429 FILLER_0_13_51
*430 FILLER_0_13_55
*431 FILLER_0_13_57
*432 FILLER_0_13_69
*433 FILLER_0_13_81
*434 FILLER_0_13_93
*435 FILLER_0_14_109
*436 FILLER_0_14_121
*437 FILLER_0_14_133
*438 FILLER_0_14_139
*439 FILLER_0_14_141
*440 FILLER_0_14_15
*441 FILLER_0_14_153
*442 FILLER_0_14_165
*443 FILLER_0_14_177
*444 FILLER_0_14_189
*445 FILLER_0_14_195
*446 FILLER_0_14_197
*447 FILLER_0_14_209
*448 FILLER_0_14_221
*449 FILLER_0_14_233
*450 FILLER_0_14_245
*451 FILLER_0_14_251
*452 FILLER_0_14_253
*453 FILLER_0_14_265
*454 FILLER_0_14_27
*455 FILLER_0_14_277
*456 FILLER_0_14_289
*457 FILLER_0_14_29
*458 FILLER_0_14_3
*459 FILLER_0_14_301
*460 FILLER_0_14_307
*461 FILLER_0_14_309
*462 FILLER_0_14_321
*463 FILLER_0_14_333
*464 FILLER_0_14_345
*465 FILLER_0_14_357
*466 FILLER_0_14_363
*467 FILLER_0_14_365
*468 FILLER_0_14_377
*469 FILLER_0_14_389
*470 FILLER_0_14_401
*471 FILLER_0_14_41
*472 FILLER_0_14_53
*473 FILLER_0_14_65
*474 FILLER_0_14_77
*475 FILLER_0_14_83
*476 FILLER_0_14_85
*477 FILLER_0_14_97
*478 FILLER_0_15_105
*479 FILLER_0_15_111
*480 FILLER_0_15_113
*481 FILLER_0_15_125
*482 FILLER_0_15_137
*483 FILLER_0_15_149
*484 FILLER_0_15_15
*485 FILLER_0_15_161
*486 FILLER_0_15_167
*487 FILLER_0_15_169
*488 FILLER_0_15_181
*489 FILLER_0_15_193
*490 FILLER_0_15_205
*491 FILLER_0_15_217
*492 FILLER_0_15_223
*493 FILLER_0_15_225
*494 FILLER_0_15_237
*495 FILLER_0_15_249
*496 FILLER_0_15_261
*497 FILLER_0_15_27
*498 FILLER_0_15_273
*499 FILLER_0_15_279
*500 FILLER_0_15_281
*501 FILLER_0_15_293
*502 FILLER_0_15_3
*503 FILLER_0_15_305
*504 FILLER_0_15_317
*505 FILLER_0_15_329
*506 FILLER_0_15_335
*507 FILLER_0_15_337
*508 FILLER_0_15_349
*509 FILLER_0_15_361
*510 FILLER_0_15_373
*511 FILLER_0_15_385
*512 FILLER_0_15_39
*513 FILLER_0_15_391
*514 FILLER_0_15_393
*515 FILLER_0_15_405
*516 FILLER_0_15_51
*517 FILLER_0_15_55
*518 FILLER_0_15_57
*519 FILLER_0_15_69
*520 FILLER_0_15_81
*521 FILLER_0_15_93
*522 FILLER_0_16_112
*523 FILLER_0_16_124
*524 FILLER_0_16_136
*525 FILLER_0_16_141
*526 FILLER_0_16_153
*527 FILLER_0_16_165
*528 FILLER_0_16_177
*529 FILLER_0_16_18
*530 FILLER_0_16_189
*531 FILLER_0_16_195
*532 FILLER_0_16_197
*533 FILLER_0_16_209
*534 FILLER_0_16_221
*535 FILLER_0_16_233
*536 FILLER_0_16_245
*537 FILLER_0_16_251
*538 FILLER_0_16_253
*539 FILLER_0_16_26
*540 FILLER_0_16_261
*541 FILLER_0_16_271
*542 FILLER_0_16_283
*543 FILLER_0_16_29
*544 FILLER_0_16_295
*545 FILLER_0_16_307
*546 FILLER_0_16_309
*547 FILLER_0_16_321
*548 FILLER_0_16_333
*549 FILLER_0_16_345
*550 FILLER_0_16_357
*551 FILLER_0_16_363
*552 FILLER_0_16_365
*553 FILLER_0_16_377
*554 FILLER_0_16_389
*555 FILLER_0_16_401
*556 FILLER_0_16_41
*557 FILLER_0_16_53
*558 FILLER_0_16_6
*559 FILLER_0_16_65
*560 FILLER_0_16_77
*561 FILLER_0_16_83
*562 FILLER_0_16_85
*563 FILLER_0_17_105
*564 FILLER_0_17_111
*565 FILLER_0_17_113
*566 FILLER_0_17_125
*567 FILLER_0_17_137
*568 FILLER_0_17_149
*569 FILLER_0_17_15
*570 FILLER_0_17_161
*571 FILLER_0_17_167
*572 FILLER_0_17_169
*573 FILLER_0_17_181
*574 FILLER_0_17_193
*575 FILLER_0_17_205
*576 FILLER_0_17_217
*577 FILLER_0_17_223
*578 FILLER_0_17_246
*579 FILLER_0_17_258
*580 FILLER_0_17_27
*581 FILLER_0_17_270
*582 FILLER_0_17_278
*583 FILLER_0_17_281
*584 FILLER_0_17_293
*585 FILLER_0_17_3
*586 FILLER_0_17_305
*587 FILLER_0_17_317
*588 FILLER_0_17_329
*589 FILLER_0_17_335
*590 FILLER_0_17_337
*591 FILLER_0_17_349
*592 FILLER_0_17_361
*593 FILLER_0_17_373
*594 FILLER_0_17_385
*595 FILLER_0_17_39
*596 FILLER_0_17_391
*597 FILLER_0_17_393
*598 FILLER_0_17_405
*599 FILLER_0_17_51
*600 FILLER_0_17_55
*601 FILLER_0_17_57
*602 FILLER_0_17_69
*603 FILLER_0_17_81
*604 FILLER_0_17_93
*605 FILLER_0_18_109
*606 FILLER_0_18_121
*607 FILLER_0_18_133
*608 FILLER_0_18_139
*609 FILLER_0_18_141
*610 FILLER_0_18_15
*611 FILLER_0_18_153
*612 FILLER_0_18_165
*613 FILLER_0_18_177
*614 FILLER_0_18_189
*615 FILLER_0_18_195
*616 FILLER_0_18_197
*617 FILLER_0_18_209
*618 FILLER_0_18_221
*619 FILLER_0_18_233
*620 FILLER_0_18_245
*621 FILLER_0_18_251
*622 FILLER_0_18_253
*623 FILLER_0_18_265
*624 FILLER_0_18_27
*625 FILLER_0_18_277
*626 FILLER_0_18_289
*627 FILLER_0_18_29
*628 FILLER_0_18_3
*629 FILLER_0_18_301
*630 FILLER_0_18_307
*631 FILLER_0_18_309
*632 FILLER_0_18_321
*633 FILLER_0_18_333
*634 FILLER_0_18_345
*635 FILLER_0_18_357
*636 FILLER_0_18_363
*637 FILLER_0_18_365
*638 FILLER_0_18_377
*639 FILLER_0_18_389
*640 FILLER_0_18_401
*641 FILLER_0_18_41
*642 FILLER_0_18_53
*643 FILLER_0_18_65
*644 FILLER_0_18_77
*645 FILLER_0_18_83
*646 FILLER_0_18_85
*647 FILLER_0_18_97
*648 FILLER_0_19_105
*649 FILLER_0_19_111
*650 FILLER_0_19_113
*651 FILLER_0_19_125
*652 FILLER_0_19_137
*653 FILLER_0_19_149
*654 FILLER_0_19_15
*655 FILLER_0_19_161
*656 FILLER_0_19_167
*657 FILLER_0_19_169
*658 FILLER_0_19_181
*659 FILLER_0_19_193
*660 FILLER_0_19_205
*661 FILLER_0_19_217
*662 FILLER_0_19_223
*663 FILLER_0_19_225
*664 FILLER_0_19_237
*665 FILLER_0_19_249
*666 FILLER_0_19_261
*667 FILLER_0_19_27
*668 FILLER_0_19_273
*669 FILLER_0_19_279
*670 FILLER_0_19_281
*671 FILLER_0_19_293
*672 FILLER_0_19_3
*673 FILLER_0_19_305
*674 FILLER_0_19_317
*675 FILLER_0_19_329
*676 FILLER_0_19_335
*677 FILLER_0_19_337
*678 FILLER_0_19_349
*679 FILLER_0_19_361
*680 FILLER_0_19_373
*681 FILLER_0_19_385
*682 FILLER_0_19_39
*683 FILLER_0_19_391
*684 FILLER_0_19_393
*685 FILLER_0_19_405
*686 FILLER_0_19_51
*687 FILLER_0_19_55
*688 FILLER_0_19_57
*689 FILLER_0_19_69
*690 FILLER_0_19_81
*691 FILLER_0_19_93
*692 FILLER_0_1_105
*693 FILLER_0_1_111
*694 FILLER_0_1_113
*695 FILLER_0_1_125
*696 FILLER_0_1_137
*697 FILLER_0_1_149
*698 FILLER_0_1_15
*699 FILLER_0_1_161
*700 FILLER_0_1_167
*701 FILLER_0_1_169
*702 FILLER_0_1_181
*703 FILLER_0_1_193
*704 FILLER_0_1_205
*705 FILLER_0_1_217
*706 FILLER_0_1_223
*707 FILLER_0_1_225
*708 FILLER_0_1_237
*709 FILLER_0_1_249
*710 FILLER_0_1_261
*711 FILLER_0_1_27
*712 FILLER_0_1_273
*713 FILLER_0_1_279
*714 FILLER_0_1_281
*715 FILLER_0_1_293
*716 FILLER_0_1_3
*717 FILLER_0_1_305
*718 FILLER_0_1_317
*719 FILLER_0_1_329
*720 FILLER_0_1_335
*721 FILLER_0_1_337
*722 FILLER_0_1_349
*723 FILLER_0_1_361
*724 FILLER_0_1_373
*725 FILLER_0_1_385
*726 FILLER_0_1_39
*727 FILLER_0_1_391
*728 FILLER_0_1_393
*729 FILLER_0_1_401
*730 FILLER_0_1_51
*731 FILLER_0_1_55
*732 FILLER_0_1_57
*733 FILLER_0_1_69
*734 FILLER_0_1_81
*735 FILLER_0_1_93
*736 FILLER_0_20_109
*737 FILLER_0_20_121
*738 FILLER_0_20_133
*739 FILLER_0_20_139
*740 FILLER_0_20_141
*741 FILLER_0_20_15
*742 FILLER_0_20_153
*743 FILLER_0_20_165
*744 FILLER_0_20_177
*745 FILLER_0_20_189
*746 FILLER_0_20_195
*747 FILLER_0_20_197
*748 FILLER_0_20_209
*749 FILLER_0_20_221
*750 FILLER_0_20_233
*751 FILLER_0_20_245
*752 FILLER_0_20_251
*753 FILLER_0_20_262
*754 FILLER_0_20_27
*755 FILLER_0_20_274
*756 FILLER_0_20_286
*757 FILLER_0_20_29
*758 FILLER_0_20_298
*759 FILLER_0_20_3
*760 FILLER_0_20_306
*761 FILLER_0_20_309
*762 FILLER_0_20_321
*763 FILLER_0_20_333
*764 FILLER_0_20_345
*765 FILLER_0_20_357
*766 FILLER_0_20_363
*767 FILLER_0_20_365
*768 FILLER_0_20_377
*769 FILLER_0_20_389
*770 FILLER_0_20_401
*771 FILLER_0_20_41
*772 FILLER_0_20_53
*773 FILLER_0_20_65
*774 FILLER_0_20_77
*775 FILLER_0_20_83
*776 FILLER_0_20_85
*777 FILLER_0_20_97
*778 FILLER_0_21_105
*779 FILLER_0_21_111
*780 FILLER_0_21_113
*781 FILLER_0_21_125
*782 FILLER_0_21_137
*783 FILLER_0_21_149
*784 FILLER_0_21_15
*785 FILLER_0_21_161
*786 FILLER_0_21_167
*787 FILLER_0_21_169
*788 FILLER_0_21_181
*789 FILLER_0_21_193
*790 FILLER_0_21_205
*791 FILLER_0_21_217
*792 FILLER_0_21_223
*793 FILLER_0_21_225
*794 FILLER_0_21_237
*795 FILLER_0_21_249
*796 FILLER_0_21_261
*797 FILLER_0_21_27
*798 FILLER_0_21_273
*799 FILLER_0_21_279
*800 FILLER_0_21_281
*801 FILLER_0_21_293
*802 FILLER_0_21_3
*803 FILLER_0_21_305
*804 FILLER_0_21_317
*805 FILLER_0_21_329
*806 FILLER_0_21_335
*807 FILLER_0_21_337
*808 FILLER_0_21_349
*809 FILLER_0_21_361
*810 FILLER_0_21_373
*811 FILLER_0_21_385
*812 FILLER_0_21_39
*813 FILLER_0_21_391
*814 FILLER_0_21_393
*815 FILLER_0_21_405
*816 FILLER_0_21_51
*817 FILLER_0_21_55
*818 FILLER_0_21_57
*819 FILLER_0_21_69
*820 FILLER_0_21_81
*821 FILLER_0_21_93
*822 FILLER_0_22_109
*823 FILLER_0_22_121
*824 FILLER_0_22_133
*825 FILLER_0_22_139
*826 FILLER_0_22_141
*827 FILLER_0_22_153
*828 FILLER_0_22_165
*829 FILLER_0_22_177
*830 FILLER_0_22_189
*831 FILLER_0_22_19
*832 FILLER_0_22_195
*833 FILLER_0_22_197
*834 FILLER_0_22_209
*835 FILLER_0_22_221
*836 FILLER_0_22_233
*837 FILLER_0_22_245
*838 FILLER_0_22_251
*839 FILLER_0_22_253
*840 FILLER_0_22_265
*841 FILLER_0_22_27
*842 FILLER_0_22_277
*843 FILLER_0_22_289
*844 FILLER_0_22_29
*845 FILLER_0_22_301
*846 FILLER_0_22_307
*847 FILLER_0_22_309
*848 FILLER_0_22_321
*849 FILLER_0_22_333
*850 FILLER_0_22_345
*851 FILLER_0_22_357
*852 FILLER_0_22_363
*853 FILLER_0_22_365
*854 FILLER_0_22_377
*855 FILLER_0_22_389
*856 FILLER_0_22_401
*857 FILLER_0_22_41
*858 FILLER_0_22_53
*859 FILLER_0_22_65
*860 FILLER_0_22_7
*861 FILLER_0_22_77
*862 FILLER_0_22_83
*863 FILLER_0_22_85
*864 FILLER_0_22_97
*865 FILLER_0_23_105
*866 FILLER_0_23_111
*867 FILLER_0_23_113
*868 FILLER_0_23_125
*869 FILLER_0_23_137
*870 FILLER_0_23_149
*871 FILLER_0_23_15
*872 FILLER_0_23_161
*873 FILLER_0_23_167
*874 FILLER_0_23_169
*875 FILLER_0_23_181
*876 FILLER_0_23_193
*877 FILLER_0_23_205
*878 FILLER_0_23_217
*879 FILLER_0_23_223
*880 FILLER_0_23_225
*881 FILLER_0_23_237
*882 FILLER_0_23_249
*883 FILLER_0_23_261
*884 FILLER_0_23_27
*885 FILLER_0_23_273
*886 FILLER_0_23_279
*887 FILLER_0_23_281
*888 FILLER_0_23_293
*889 FILLER_0_23_3
*890 FILLER_0_23_305
*891 FILLER_0_23_317
*892 FILLER_0_23_329
*893 FILLER_0_23_335
*894 FILLER_0_23_337
*895 FILLER_0_23_349
*896 FILLER_0_23_361
*897 FILLER_0_23_373
*898 FILLER_0_23_385
*899 FILLER_0_23_39
*900 FILLER_0_23_391
*901 FILLER_0_23_393
*902 FILLER_0_23_405
*903 FILLER_0_23_51
*904 FILLER_0_23_55
*905 FILLER_0_23_57
*906 FILLER_0_23_69
*907 FILLER_0_23_81
*908 FILLER_0_23_93
*909 FILLER_0_24_109
*910 FILLER_0_24_121
*911 FILLER_0_24_133
*912 FILLER_0_24_139
*913 FILLER_0_24_141
*914 FILLER_0_24_15
*915 FILLER_0_24_153
*916 FILLER_0_24_165
*917 FILLER_0_24_177
*918 FILLER_0_24_189
*919 FILLER_0_24_194
*920 FILLER_0_24_197
*921 FILLER_0_24_209
*922 FILLER_0_24_232
*923 FILLER_0_24_244
*924 FILLER_0_24_259
*925 FILLER_0_24_27
*926 FILLER_0_24_271
*927 FILLER_0_24_283
*928 FILLER_0_24_29
*929 FILLER_0_24_295
*930 FILLER_0_24_3
*931 FILLER_0_24_307
*932 FILLER_0_24_309
*933 FILLER_0_24_321
*934 FILLER_0_24_333
*935 FILLER_0_24_345
*936 FILLER_0_24_357
*937 FILLER_0_24_363
*938 FILLER_0_24_365
*939 FILLER_0_24_377
*940 FILLER_0_24_389
*941 FILLER_0_24_401
*942 FILLER_0_24_44
*943 FILLER_0_24_56
*944 FILLER_0_24_68
*945 FILLER_0_24_80
*946 FILLER_0_24_85
*947 FILLER_0_24_97
*948 FILLER_0_25_106
*949 FILLER_0_25_113
*950 FILLER_0_25_125
*951 FILLER_0_25_137
*952 FILLER_0_25_149
*953 FILLER_0_25_15
*954 FILLER_0_25_161
*955 FILLER_0_25_167
*956 FILLER_0_25_169
*957 FILLER_0_25_181
*958 FILLER_0_25_203
*959 FILLER_0_25_216
*960 FILLER_0_25_225
*961 FILLER_0_25_235
*962 FILLER_0_25_253
*963 FILLER_0_25_267
*964 FILLER_0_25_27
*965 FILLER_0_25_278
*966 FILLER_0_25_281
*967 FILLER_0_25_293
*968 FILLER_0_25_3
*969 FILLER_0_25_305
*970 FILLER_0_25_317
*971 FILLER_0_25_329
*972 FILLER_0_25_335
*973 FILLER_0_25_337
*974 FILLER_0_25_349
*975 FILLER_0_25_361
*976 FILLER_0_25_373
*977 FILLER_0_25_385
*978 FILLER_0_25_39
*979 FILLER_0_25_391
*980 FILLER_0_25_393
*981 FILLER_0_25_405
*982 FILLER_0_25_51
*983 FILLER_0_25_55
*984 FILLER_0_25_57
*985 FILLER_0_25_69
*986 FILLER_0_25_82
*987 FILLER_0_25_94
*988 FILLER_0_26_109
*989 FILLER_0_26_121
*990 FILLER_0_26_133
*991 FILLER_0_26_139
*992 FILLER_0_26_141
*993 FILLER_0_26_153
*994 FILLER_0_26_165
*995 FILLER_0_26_177
*996 FILLER_0_26_18
*997 FILLER_0_26_189
*998 FILLER_0_26_195
*999 FILLER_0_26_197
*1000 FILLER_0_26_209
*1001 FILLER_0_26_221
*1002 FILLER_0_26_233
*1003 FILLER_0_26_247
*1004 FILLER_0_26_251
*1005 FILLER_0_26_253
*1006 FILLER_0_26_26
*1007 FILLER_0_26_265
*1008 FILLER_0_26_277
*1009 FILLER_0_26_289
*1010 FILLER_0_26_29
*1011 FILLER_0_26_301
*1012 FILLER_0_26_307
*1013 FILLER_0_26_309
*1014 FILLER_0_26_321
*1015 FILLER_0_26_333
*1016 FILLER_0_26_345
*1017 FILLER_0_26_357
*1018 FILLER_0_26_363
*1019 FILLER_0_26_365
*1020 FILLER_0_26_377
*1021 FILLER_0_26_389
*1022 FILLER_0_26_401
*1023 FILLER_0_26_41
*1024 FILLER_0_26_53
*1025 FILLER_0_26_6
*1026 FILLER_0_26_65
*1027 FILLER_0_26_77
*1028 FILLER_0_26_83
*1029 FILLER_0_26_85
*1030 FILLER_0_26_97
*1031 FILLER_0_27_105
*1032 FILLER_0_27_111
*1033 FILLER_0_27_134
*1034 FILLER_0_27_146
*1035 FILLER_0_27_15
*1036 FILLER_0_27_158
*1037 FILLER_0_27_166
*1038 FILLER_0_27_169
*1039 FILLER_0_27_181
*1040 FILLER_0_27_185
*1041 FILLER_0_27_189
*1042 FILLER_0_27_201
*1043 FILLER_0_27_213
*1044 FILLER_0_27_222
*1045 FILLER_0_27_225
*1046 FILLER_0_27_237
*1047 FILLER_0_27_249
*1048 FILLER_0_27_261
*1049 FILLER_0_27_269
*1050 FILLER_0_27_27
*1051 FILLER_0_27_275
*1052 FILLER_0_27_279
*1053 FILLER_0_27_281
*1054 FILLER_0_27_293
*1055 FILLER_0_27_3
*1056 FILLER_0_27_305
*1057 FILLER_0_27_317
*1058 FILLER_0_27_329
*1059 FILLER_0_27_335
*1060 FILLER_0_27_337
*1061 FILLER_0_27_349
*1062 FILLER_0_27_361
*1063 FILLER_0_27_373
*1064 FILLER_0_27_385
*1065 FILLER_0_27_39
*1066 FILLER_0_27_391
*1067 FILLER_0_27_393
*1068 FILLER_0_27_405
*1069 FILLER_0_27_51
*1070 FILLER_0_27_55
*1071 FILLER_0_27_57
*1072 FILLER_0_27_69
*1073 FILLER_0_27_81
*1074 FILLER_0_27_93
*1075 FILLER_0_28_111
*1076 FILLER_0_28_123
*1077 FILLER_0_28_135
*1078 FILLER_0_28_139
*1079 FILLER_0_28_141
*1080 FILLER_0_28_15
*1081 FILLER_0_28_153
*1082 FILLER_0_28_165
*1083 FILLER_0_28_177
*1084 FILLER_0_28_190
*1085 FILLER_0_28_204
*1086 FILLER_0_28_215
*1087 FILLER_0_28_227
*1088 FILLER_0_28_242
*1089 FILLER_0_28_251
*1090 FILLER_0_28_253
*1091 FILLER_0_28_259
*1092 FILLER_0_28_27
*1093 FILLER_0_28_284
*1094 FILLER_0_28_29
*1095 FILLER_0_28_296
*1096 FILLER_0_28_3
*1097 FILLER_0_28_309
*1098 FILLER_0_28_321
*1099 FILLER_0_28_333
*1100 FILLER_0_28_345
*1101 FILLER_0_28_357
*1102 FILLER_0_28_363
*1103 FILLER_0_28_365
*1104 FILLER_0_28_377
*1105 FILLER_0_28_389
*1106 FILLER_0_28_401
*1107 FILLER_0_28_41
*1108 FILLER_0_28_53
*1109 FILLER_0_28_65
*1110 FILLER_0_28_77
*1111 FILLER_0_28_83
*1112 FILLER_0_28_85
*1113 FILLER_0_28_89
*1114 FILLER_0_28_99
*1115 FILLER_0_29_102
*1116 FILLER_0_29_110
*1117 FILLER_0_29_124
*1118 FILLER_0_29_136
*1119 FILLER_0_29_148
*1120 FILLER_0_29_15
*1121 FILLER_0_29_160
*1122 FILLER_0_29_169
*1123 FILLER_0_29_181
*1124 FILLER_0_29_189
*1125 FILLER_0_29_195
*1126 FILLER_0_29_219
*1127 FILLER_0_29_223
*1128 FILLER_0_29_225
*1129 FILLER_0_29_260
*1130 FILLER_0_29_27
*1131 FILLER_0_29_272
*1132 FILLER_0_29_281
*1133 FILLER_0_29_293
*1134 FILLER_0_29_3
*1135 FILLER_0_29_305
*1136 FILLER_0_29_317
*1137 FILLER_0_29_329
*1138 FILLER_0_29_335
*1139 FILLER_0_29_337
*1140 FILLER_0_29_349
*1141 FILLER_0_29_361
*1142 FILLER_0_29_373
*1143 FILLER_0_29_385
*1144 FILLER_0_29_39
*1145 FILLER_0_29_391
*1146 FILLER_0_29_393
*1147 FILLER_0_29_405
*1148 FILLER_0_29_51
*1149 FILLER_0_29_55
*1150 FILLER_0_29_57
*1151 FILLER_0_29_66
*1152 FILLER_0_29_78
*1153 FILLER_0_29_90
*1154 FILLER_0_2_109
*1155 FILLER_0_2_121
*1156 FILLER_0_2_133
*1157 FILLER_0_2_139
*1158 FILLER_0_2_141
*1159 FILLER_0_2_15
*1160 FILLER_0_2_153
*1161 FILLER_0_2_165
*1162 FILLER_0_2_177
*1163 FILLER_0_2_189
*1164 FILLER_0_2_195
*1165 FILLER_0_2_197
*1166 FILLER_0_2_209
*1167 FILLER_0_2_221
*1168 FILLER_0_2_233
*1169 FILLER_0_2_245
*1170 FILLER_0_2_251
*1171 FILLER_0_2_253
*1172 FILLER_0_2_265
*1173 FILLER_0_2_27
*1174 FILLER_0_2_277
*1175 FILLER_0_2_289
*1176 FILLER_0_2_29
*1177 FILLER_0_2_3
*1178 FILLER_0_2_301
*1179 FILLER_0_2_307
*1180 FILLER_0_2_309
*1181 FILLER_0_2_321
*1182 FILLER_0_2_333
*1183 FILLER_0_2_345
*1184 FILLER_0_2_357
*1185 FILLER_0_2_363
*1186 FILLER_0_2_365
*1187 FILLER_0_2_377
*1188 FILLER_0_2_389
*1189 FILLER_0_2_401
*1190 FILLER_0_2_41
*1191 FILLER_0_2_53
*1192 FILLER_0_2_65
*1193 FILLER_0_2_77
*1194 FILLER_0_2_83
*1195 FILLER_0_2_85
*1196 FILLER_0_2_97
*1197 FILLER_0_30_109
*1198 FILLER_0_30_121
*1199 FILLER_0_30_133
*1200 FILLER_0_30_139
*1201 FILLER_0_30_141
*1202 FILLER_0_30_153
*1203 FILLER_0_30_165
*1204 FILLER_0_30_177
*1205 FILLER_0_30_18
*1206 FILLER_0_30_189
*1207 FILLER_0_30_195
*1208 FILLER_0_30_197
*1209 FILLER_0_30_209
*1210 FILLER_0_30_221
*1211 FILLER_0_30_225
*1212 FILLER_0_30_235
*1213 FILLER_0_30_247
*1214 FILLER_0_30_251
*1215 FILLER_0_30_253
*1216 FILLER_0_30_26
*1217 FILLER_0_30_265
*1218 FILLER_0_30_277
*1219 FILLER_0_30_289
*1220 FILLER_0_30_29
*1221 FILLER_0_30_301
*1222 FILLER_0_30_307
*1223 FILLER_0_30_309
*1224 FILLER_0_30_321
*1225 FILLER_0_30_333
*1226 FILLER_0_30_345
*1227 FILLER_0_30_357
*1228 FILLER_0_30_363
*1229 FILLER_0_30_365
*1230 FILLER_0_30_377
*1231 FILLER_0_30_389
*1232 FILLER_0_30_401
*1233 FILLER_0_30_41
*1234 FILLER_0_30_53
*1235 FILLER_0_30_6
*1236 FILLER_0_30_65
*1237 FILLER_0_30_77
*1238 FILLER_0_30_83
*1239 FILLER_0_30_85
*1240 FILLER_0_30_97
*1241 FILLER_0_31_105
*1242 FILLER_0_31_111
*1243 FILLER_0_31_113
*1244 FILLER_0_31_125
*1245 FILLER_0_31_137
*1246 FILLER_0_31_149
*1247 FILLER_0_31_15
*1248 FILLER_0_31_161
*1249 FILLER_0_31_167
*1250 FILLER_0_31_169
*1251 FILLER_0_31_181
*1252 FILLER_0_31_193
*1253 FILLER_0_31_205
*1254 FILLER_0_31_217
*1255 FILLER_0_31_223
*1256 FILLER_0_31_225
*1257 FILLER_0_31_237
*1258 FILLER_0_31_249
*1259 FILLER_0_31_261
*1260 FILLER_0_31_27
*1261 FILLER_0_31_273
*1262 FILLER_0_31_279
*1263 FILLER_0_31_281
*1264 FILLER_0_31_293
*1265 FILLER_0_31_3
*1266 FILLER_0_31_305
*1267 FILLER_0_31_317
*1268 FILLER_0_31_329
*1269 FILLER_0_31_335
*1270 FILLER_0_31_337
*1271 FILLER_0_31_349
*1272 FILLER_0_31_361
*1273 FILLER_0_31_373
*1274 FILLER_0_31_385
*1275 FILLER_0_31_39
*1276 FILLER_0_31_391
*1277 FILLER_0_31_393
*1278 FILLER_0_31_405
*1279 FILLER_0_31_51
*1280 FILLER_0_31_55
*1281 FILLER_0_31_57
*1282 FILLER_0_31_69
*1283 FILLER_0_31_81
*1284 FILLER_0_31_93
*1285 FILLER_0_32_109
*1286 FILLER_0_32_121
*1287 FILLER_0_32_133
*1288 FILLER_0_32_139
*1289 FILLER_0_32_141
*1290 FILLER_0_32_15
*1291 FILLER_0_32_153
*1292 FILLER_0_32_165
*1293 FILLER_0_32_177
*1294 FILLER_0_32_189
*1295 FILLER_0_32_195
*1296 FILLER_0_32_197
*1297 FILLER_0_32_206
*1298 FILLER_0_32_258
*1299 FILLER_0_32_27
*1300 FILLER_0_32_270
*1301 FILLER_0_32_282
*1302 FILLER_0_32_29
*1303 FILLER_0_32_294
*1304 FILLER_0_32_3
*1305 FILLER_0_32_306
*1306 FILLER_0_32_309
*1307 FILLER_0_32_321
*1308 FILLER_0_32_333
*1309 FILLER_0_32_345
*1310 FILLER_0_32_357
*1311 FILLER_0_32_363
*1312 FILLER_0_32_365
*1313 FILLER_0_32_377
*1314 FILLER_0_32_389
*1315 FILLER_0_32_401
*1316 FILLER_0_32_41
*1317 FILLER_0_32_53
*1318 FILLER_0_32_65
*1319 FILLER_0_32_77
*1320 FILLER_0_32_83
*1321 FILLER_0_32_85
*1322 FILLER_0_32_97
*1323 FILLER_0_33_105
*1324 FILLER_0_33_111
*1325 FILLER_0_33_113
*1326 FILLER_0_33_125
*1327 FILLER_0_33_137
*1328 FILLER_0_33_149
*1329 FILLER_0_33_15
*1330 FILLER_0_33_161
*1331 FILLER_0_33_167
*1332 FILLER_0_33_169
*1333 FILLER_0_33_181
*1334 FILLER_0_33_193
*1335 FILLER_0_33_205
*1336 FILLER_0_33_217
*1337 FILLER_0_33_223
*1338 FILLER_0_33_225
*1339 FILLER_0_33_237
*1340 FILLER_0_33_249
*1341 FILLER_0_33_261
*1342 FILLER_0_33_27
*1343 FILLER_0_33_273
*1344 FILLER_0_33_279
*1345 FILLER_0_33_281
*1346 FILLER_0_33_293
*1347 FILLER_0_33_3
*1348 FILLER_0_33_305
*1349 FILLER_0_33_317
*1350 FILLER_0_33_329
*1351 FILLER_0_33_335
*1352 FILLER_0_33_337
*1353 FILLER_0_33_349
*1354 FILLER_0_33_361
*1355 FILLER_0_33_373
*1356 FILLER_0_33_385
*1357 FILLER_0_33_39
*1358 FILLER_0_33_391
*1359 FILLER_0_33_393
*1360 FILLER_0_33_405
*1361 FILLER_0_33_51
*1362 FILLER_0_33_55
*1363 FILLER_0_33_57
*1364 FILLER_0_33_69
*1365 FILLER_0_33_81
*1366 FILLER_0_33_93
*1367 FILLER_0_34_109
*1368 FILLER_0_34_121
*1369 FILLER_0_34_133
*1370 FILLER_0_34_139
*1371 FILLER_0_34_141
*1372 FILLER_0_34_153
*1373 FILLER_0_34_165
*1374 FILLER_0_34_177
*1375 FILLER_0_34_18
*1376 FILLER_0_34_189
*1377 FILLER_0_34_195
*1378 FILLER_0_34_197
*1379 FILLER_0_34_209
*1380 FILLER_0_34_221
*1381 FILLER_0_34_233
*1382 FILLER_0_34_245
*1383 FILLER_0_34_251
*1384 FILLER_0_34_253
*1385 FILLER_0_34_26
*1386 FILLER_0_34_265
*1387 FILLER_0_34_277
*1388 FILLER_0_34_289
*1389 FILLER_0_34_29
*1390 FILLER_0_34_301
*1391 FILLER_0_34_307
*1392 FILLER_0_34_309
*1393 FILLER_0_34_321
*1394 FILLER_0_34_333
*1395 FILLER_0_34_345
*1396 FILLER_0_34_357
*1397 FILLER_0_34_363
*1398 FILLER_0_34_365
*1399 FILLER_0_34_377
*1400 FILLER_0_34_389
*1401 FILLER_0_34_401
*1402 FILLER_0_34_41
*1403 FILLER_0_34_53
*1404 FILLER_0_34_6
*1405 FILLER_0_34_65
*1406 FILLER_0_34_77
*1407 FILLER_0_34_83
*1408 FILLER_0_34_85
*1409 FILLER_0_34_97
*1410 FILLER_0_35_105
*1411 FILLER_0_35_111
*1412 FILLER_0_35_113
*1413 FILLER_0_35_125
*1414 FILLER_0_35_137
*1415 FILLER_0_35_149
*1416 FILLER_0_35_15
*1417 FILLER_0_35_161
*1418 FILLER_0_35_167
*1419 FILLER_0_35_169
*1420 FILLER_0_35_181
*1421 FILLER_0_35_193
*1422 FILLER_0_35_205
*1423 FILLER_0_35_217
*1424 FILLER_0_35_223
*1425 FILLER_0_35_225
*1426 FILLER_0_35_237
*1427 FILLER_0_35_249
*1428 FILLER_0_35_261
*1429 FILLER_0_35_27
*1430 FILLER_0_35_273
*1431 FILLER_0_35_279
*1432 FILLER_0_35_281
*1433 FILLER_0_35_293
*1434 FILLER_0_35_3
*1435 FILLER_0_35_305
*1436 FILLER_0_35_317
*1437 FILLER_0_35_329
*1438 FILLER_0_35_335
*1439 FILLER_0_35_337
*1440 FILLER_0_35_349
*1441 FILLER_0_35_361
*1442 FILLER_0_35_373
*1443 FILLER_0_35_385
*1444 FILLER_0_35_39
*1445 FILLER_0_35_391
*1446 FILLER_0_35_393
*1447 FILLER_0_35_405
*1448 FILLER_0_35_51
*1449 FILLER_0_35_55
*1450 FILLER_0_35_57
*1451 FILLER_0_35_69
*1452 FILLER_0_35_81
*1453 FILLER_0_35_93
*1454 FILLER_0_36_109
*1455 FILLER_0_36_121
*1456 FILLER_0_36_133
*1457 FILLER_0_36_139
*1458 FILLER_0_36_141
*1459 FILLER_0_36_15
*1460 FILLER_0_36_153
*1461 FILLER_0_36_165
*1462 FILLER_0_36_177
*1463 FILLER_0_36_189
*1464 FILLER_0_36_195
*1465 FILLER_0_36_197
*1466 FILLER_0_36_209
*1467 FILLER_0_36_221
*1468 FILLER_0_36_233
*1469 FILLER_0_36_245
*1470 FILLER_0_36_251
*1471 FILLER_0_36_253
*1472 FILLER_0_36_265
*1473 FILLER_0_36_27
*1474 FILLER_0_36_277
*1475 FILLER_0_36_289
*1476 FILLER_0_36_29
*1477 FILLER_0_36_3
*1478 FILLER_0_36_301
*1479 FILLER_0_36_307
*1480 FILLER_0_36_309
*1481 FILLER_0_36_321
*1482 FILLER_0_36_333
*1483 FILLER_0_36_345
*1484 FILLER_0_36_357
*1485 FILLER_0_36_363
*1486 FILLER_0_36_365
*1487 FILLER_0_36_377
*1488 FILLER_0_36_389
*1489 FILLER_0_36_401
*1490 FILLER_0_36_41
*1491 FILLER_0_36_53
*1492 FILLER_0_36_65
*1493 FILLER_0_36_77
*1494 FILLER_0_36_83
*1495 FILLER_0_36_85
*1496 FILLER_0_36_97
*1497 FILLER_0_37_105
*1498 FILLER_0_37_111
*1499 FILLER_0_37_113
*1500 FILLER_0_37_125
*1501 FILLER_0_37_137
*1502 FILLER_0_37_149
*1503 FILLER_0_37_15
*1504 FILLER_0_37_161
*1505 FILLER_0_37_167
*1506 FILLER_0_37_169
*1507 FILLER_0_37_181
*1508 FILLER_0_37_193
*1509 FILLER_0_37_205
*1510 FILLER_0_37_217
*1511 FILLER_0_37_223
*1512 FILLER_0_37_225
*1513 FILLER_0_37_237
*1514 FILLER_0_37_249